BASEPATH=$(THISDIR)
FORSISLPATH=$(BASEPATH)
FORSISLLIBPATH=$(LIBPATH)
FORSISLBINPATH=$(BINPATH)
FORSISLMODPATH=$(MODPATH)
FORSISLINCPATH=$(INCPATH)
FORSISLSRCPATH=$(SRCPATH)
SISLLIB=$(SISL_PATH)/lib
SISLINC=$(SISL_PATH)/include
COMMONLIBNAME=$(COMMONLIB)
